[TITLE]
;;Project Title/Notes

[OPTIONS]
;;Option             Value
FLOW_UNITS           CFS
INFILTRATION         HORTON
FLOW_ROUTING         DYNWAVE
LINK_OFFSETS         DEPTH
MIN_SLOPE            0
ALLOW_PONDING        NO
SKIP_STEADY_STATE    NO

START_DATE           02/09/2023
START_TIME           00:00:00
REPORT_START_DATE    02/09/2023
REPORT_START_TIME    00:00:00
END_DATE             02/10/2023
END_TIME             03:00:00
SWEEP_START          01/01
SWEEP_END            12/31
DRY_DAYS             0
REPORT_STEP          00:05:00
WET_STEP             00:05:00
DRY_STEP             00:05:00
ROUTING_STEP         0:00:30 
RULE_STEP            00:00:00

INERTIAL_DAMPING     PARTIAL
NORMAL_FLOW_LIMITED  BOTH
FORCE_MAIN_EQUATION  H-W
VARIABLE_STEP        0.75
LENGTHENING_STEP     0
MIN_SURFAREA         12.566
MAX_TRIALS           8
HEAD_TOLERANCE       0.005
SYS_FLOW_TOL         5
LAT_FLOW_TOL         5
MINIMUM_STEP         0.5
THREADS              1

[EVAPORATION]
;;Data Source    Parameters
;;-------------- ----------------
CONSTANT         0.0
DRY_ONLY         NO

[RAINGAGES]
;;Name           Format    Interval SCF      Source    
;;-------------- --------- ------ ------ ----------
1                INTENSITY 1:00     1.0      TIMESERIES SCS-Type2-25yr24hr-Storm

[SUBCATCHMENTS]
;;Name           Rain Gage        Outlet           Area     %Imperv  Width    %Slope   CurbLen  SnowPack        
;;-------------- ---------------- ---------------- -------- -------- -------- -------- -------- ----------------
123              1                1                2.56     100      334.2    1        0                        
124              1                2                2.56     100      324      1        0                        
125              1                3                2.56     100      335      1        0                        
126              1                4                2.56     100      335      1        0                        
127              1                5                2.56     100      335      1        0                        
128              1                6                2.56     100      335      1        0                        
129              1                7                2.56     100      335      1        0                        
130              1                8                2.56     100      324      1        0                        
131              1                9                2.56     100      334.2    1        0                        
132              1                10               4        85       324      1        0                        
133              1                11               4        85       335      1        0                        
134              1                12               4        85       335      1        0                        
135              1                13               2.56     90       335      1        0                        
136              1                14               2.56     85       335      1        0                        
137              1                15               2.56     85       335      1        0                        
138              1                16               2.56     100      324      1        0                        
139              1                17               2.56     100      334.2    1        0                        
140              1                18               4        85       324      1        0                        
141              1                19               4        85       335      1        0                        
142              1                20               4        85       335      1        0                        
143              1                21               2.56     90       335      1        0                        
144              1                22               2.56     85       335      1        0                        
145              1                23               2.56     85       335      1        0                        
146              1                24               2.56     100      334.2    1        0                        
147              1                25               2.56     100      334.2    1        0                        
148              1                26               4        85       324      1        0                        
149              1                27               4        85       335      1        0                        
150              1                28               4        85       335      1        0                        
151              1                29               2.56     90       335      1        0                        
152              1                30               2.56     85       335      1        0                        
153              1                31               2.56     85       335      1        0                        
154              1                32               2.56     100      324      1        0                        
155              1                33               2.56     100      334.2    1        0                        
156              1                34               4        85       324      1        0                        
157              1                35               4        85       335      1        0                        
158              1                36               4        85       335      1        0                        
159              1                37               2.56     90       335      1        0                        
160              1                38               2.56     85       335      1        0                        
161              1                39               2.56     85       335      1        0                        
162              1                40               2.56     100      324      1        0                        
163              1                41               2.56     100      334.2    1        0                        
164              1                42               4        85       324      1        0                        
165              1                43               4        85       335      1        0                        
166              1                44               4        85       335      1        0                        
167              1                45               2.56     90       335      1        0                        
168              1                46               2.56     85       335      1        0                        
169              1                47               2.56     85       335      1        0                        
170              1                48               2.56     100      324      1        0                        
171              1                49               2.56     100      334.2    1        0                        
172              1                50               4        85       335      1        0                        
173              1                51               4        85       335      1        0                        
174              1                52               4        85       335      1        0                        
175              1                53               2.56     90       335      1        0                        
176              1                54               2.56     85       335      1        0                        
177              1                55               2.56     85       335      1        0                        
178              1                56               2.56     100      324      1        0                        
179              1                57               2.56     100      334.2    1        0                        
180              1                58               4        85       335      1        0                        
181              1                59               4        85       335      1        0                        
182              1                60               4        85       335      1        0                        
183              1                61               2.56     90       335      1        0                        
184              1                62               2.56     85       335      1        0                        
185              1                63               2.56     85       335      1        0                        
186              1                64               2.56     100      324      1        0                        
187              1                65               2.56     100      334.2    1        0                        
188              1                66               4        85       335      1        0                        
189              1                67               4        85       335      1        0                        
190              1                68               4        85       335      1        0                        
191              1                69               2.56     90       335      1        0                        
192              1                70               2.56     85       335      1        0                        
193              1                71               2.56     85       335      1        0                        
194              1                72               2.56     100      324      1        0                        
195              1                73               2.56     100      334.2    1        0                        
196              1                74               4        85       335      1        0                        
197              1                75               4        85       335      1        0                        
198              1                76               4        85       335      1        0                        
199              1                77               2.56     85       335      1        0                        
200              1                78               2.56     85       335      1        0                        
201              1                79               2.56     85       335      1        0                        
202              1                80               2.56     100      324      1        0                        
203              1                81               2.56     100      334.2    1        0                        
204              1                82               4        85       335      1        0                        
205              1                83               4        85       335      1        0                        
206              1                84               4        85       335      1        0                        
207              1                85               2.56     85       335      1        0                        
208              1                86               2.56     85       335      1        0                        
209              1                87               2.56     85       335      1        0                        
210              1                88               2.56     100      334.2    1        0                        
211              1                89               2.56     100      334.2    1        0                        
212              1                90               4        85       335      1        0                        
213              1                91               4        85       335      1        0                        
214              1                92               4        85       335      1        0                        
215              1                93               2.56     85       335      1        0                        
216              1                94               2.56     85       335      1        0                        
217              1                95               2.56     85       335      1        0                        
218              1                96               2.56     100      334.2    1        0                        
219              1                97               2.56     100      334.2    1        0                        
220              1                98               4        85       335      1        0                        
221              1                99               4        85       335      1        0                        
222              1                100              4        85       335      1        0                        
223              1                101              2.56     85       335      1        0                        
224              1                102              2.56     85       335      1        0                        
225              1                103              2.56     85       335      1        0                        
226              1                104              2.56     100      324      1        0                        
227              1                105              2.56     100      334.2    1        0                        
228              1                106              4        85       335      1        0                        
229              1                107              4        85       335      1        0                        
230              1                108              4        85       335      1        0                        
231              1                109              2.56     85       335      1        0                        
232              1                110              2.56     85       335      1        0                        
233              1                111              2.56     85       335      1        0                        
234              1                112              2.56     100      324      1        0                        
235              1                113              2.56     100      334.2    1        0                        
236              1                114              2.56     100      335      1        0                        
237              1                115              2.56     100      335      1        0                        
238              1                116              2.56     100      335      1        0                        
239              1                117              2.56     100      335      1        0                        
240              1                118              2.56     100      335      1        0                        
241              1                119              2.56     100      335      1        0                        
242              1                120              2.56     100      324      1        0                        

[SUBAREAS]
;;Subcatchment   N-Imperv   N-Perv     S-Imperv   S-Perv     PctZero    RouteTo    PctRouted 
;;-------------- ---------- ---------- ---------- ---------- ---------- ---------- ----------
123              0.035      0.035      0          0          0          OUTLET    
124              0.035      0.035      0          0          0          OUTLET    
125              0.035      0.035      0          0          0          OUTLET    
126              0.035      0.035      0          0          0          OUTLET    
127              0.035      0.035      0          0          0          OUTLET    
128              0.035      0.035      0          0          0          OUTLET    
129              0.035      0.035      0          0          0          OUTLET    
130              0.035      0.035      0          0          0          OUTLET    
131              0.035      0.035      0          0          0          OUTLET    
132              0.30       0.035      0          0          0          OUTLET    
133              0.30       0.035      0          0          0          OUTLET    
134              0.30       0.035      0          0          0          OUTLET    
135              0.035      0.035      0          0          0          OUTLET    
136              0.035      0.035      0          0          0          OUTLET    
137              0.035      0.035      0          0          0          OUTLET    
138              0.035      0.035      0          0          0          OUTLET    
139              0.035      0.035      0          0          0          OUTLET    
140              0.30       0.035      0          0          0          OUTLET    
141              0.30       0.035      0          0          0          OUTLET    
142              0.30       0.035      0          0          0          OUTLET    
143              0.035      0.035      0          0          0          OUTLET    
144              0.035      0.035      0          0          0          OUTLET    
145              0.035      0.035      0          0          0          OUTLET    
146              0.035      0.035      0          0          0          OUTLET    
147              0.035      0.035      0          0          0          OUTLET    
148              0.30       0.035      0          0          0          OUTLET    
149              0.30       0.035      0          0          0          OUTLET    
150              0.30       0.035      0          0          0          OUTLET    
151              0.035      0.035      0          0          0          OUTLET    
152              0.035      0.035      0          0          0          OUTLET    
153              0.035      0.035      0          0          0          OUTLET    
154              0.035      0.035      0          0          0          OUTLET    
155              0.035      0.035      0          0          0          OUTLET    
156              0.30       0.035      0          0          0          OUTLET    
157              0.30       0.035      0          0          0          OUTLET    
158              0.30       0.035      0          0          0          OUTLET    
159              0.035      0.035      0          0          0          OUTLET    
160              0.035      0.035      0          0          0          OUTLET    
161              0.035      0.035      0          0          0          OUTLET    
162              0.035      0.035      0          0          0          OUTLET    
163              0.035      0.035      0          0          0          OUTLET    
164              0.30       0.035      0          0          0          OUTLET    
165              0.30       0.035      0          0          0          OUTLET    
166              0.30       0.035      0          0          0          OUTLET    
167              0.035      0.035      0          0          0          OUTLET    
168              0.035      0.035      0          0          0          OUTLET    
169              0.035      0.035      0          0          0          OUTLET    
170              0.035      0.035      0          0          0          OUTLET    
171              0.035      0.035      0          0          0          OUTLET    
172              0.30       0.035      0          0          0          OUTLET    
173              0.30       0.035      0          0          0          OUTLET    
174              0.30       0.035      0          0          0          OUTLET    
175              0.035      0.035      0          0          0          OUTLET    
176              0.035      0.035      0          0          0          OUTLET    
177              0.035      0.035      0          0          0          OUTLET    
178              0.035      0.035      0          0          0          OUTLET    
179              0.035      0.035      0          0          0          OUTLET    
180              0.30       0.035      0          0          0          OUTLET    
181              0.30       0.035      0          0          0          OUTLET    
182              0.30       0.035      0          0          0          OUTLET    
183              0.035      0.035      0          0          0          OUTLET    
184              0.035      0.035      0          0          0          OUTLET    
185              0.035      0.035      0          0          0          OUTLET    
186              0.035      0.035      0          0          0          OUTLET    
187              0.035      0.035      0          0          0          OUTLET    
188              0.30       0.035      0          0          0          OUTLET    
189              0.30       0.035      0          0          0          OUTLET    
190              0.30       0.035      0          0          0          OUTLET    
191              0.035      0.035      0          0          0          OUTLET    
192              0.035      0.035      0          0          0          OUTLET    
193              0.035      0.035      0          0          0          OUTLET    
194              0.035      0.035      0          0          0          OUTLET    
195              0.035      0.035      0          0          0          OUTLET    
196              0.30       0.035      0          0          0          OUTLET    
197              0.30       0.035      0          0          0          OUTLET    
198              0.30       0.035      0          0          0          OUTLET    
199              0.035      0.035      0          0          0          OUTLET    
200              0.035      0.035      0          0          0          OUTLET    
201              0.035      0.035      0          0          0          OUTLET    
202              0.035      0.035      0          0          0          OUTLET    
203              0.035      0.035      0          0          0          OUTLET    
204              0.30       0.035      0          0          0          OUTLET    
205              0.30       0.035      0          0          0          OUTLET    
206              0.30       0.035      0          0          0          OUTLET    
207              0.035      0.035      0          0          0          OUTLET    
208              0.035      0.035      0          0          0          OUTLET    
209              0.035      0.035      0          0          0          OUTLET    
210              0.035      0.035      0          0          0          OUTLET    
211              0.035      0.035      0          0          0          OUTLET    
212              0.30       0.035      0          0          0          OUTLET    
213              0.30       0.035      0          0          0          OUTLET    
214              0.30       0.035      0          0          0          OUTLET    
215              0.035      0.035      0          0          0          OUTLET    
216              0.035      0.035      0          0          0          OUTLET    
217              0.035      0.035      0          0          0          OUTLET    
218              0.035      0.035      0          0          0          OUTLET    
219              0.035      0.035      0          0          0          OUTLET    
220              0.30       0.035      0          0          0          OUTLET    
221              0.30       0.035      0          0          0          OUTLET    
222              0.30       0.035      0          0          0          OUTLET    
223              0.035      0.035      0          0          0          OUTLET    
224              0.035      0.035      0          0          0          OUTLET    
225              0.035      0.035      0          0          0          OUTLET    
226              0.035      0.035      0          0          0          OUTLET    
227              0.035      0.035      0          0          0          OUTLET    
228              0.30       0.035      0          0          0          OUTLET    
229              0.30       0.035      0          0          0          OUTLET    
230              0.30       0.035      0          0          0          OUTLET    
231              0.035      0.035      0          0          0          OUTLET    
232              0.035      0.035      0          0          0          OUTLET    
233              0.035      0.035      0          0          0          OUTLET    
234              0.035      0.035      0          0          0          OUTLET    
235              0.035      0.035      0          0          0          OUTLET    
236              0.035      0.035      0          0          0          OUTLET    
237              0.035      0.035      0          0          0          OUTLET    
238              0.035      0.035      0          0          0          OUTLET    
239              0.035      0.035      0          0          0          OUTLET    
240              0.035      0.035      0          0          0          OUTLET    
241              0.035      0.035      0          0          0          OUTLET    
242              0.035      0.035      0          0          0          OUTLET    

[INFILTRATION]
;;Subcatchment   Param1     Param2     Param3     Param4     Param5    
;;-------------- ---------- ---------- ---------- ---------- ----------
123              9          3          4          7          0         
124              9          3          4          7          0         
125              9          3          4          7          0         
126              9          3          4          7          0         
127              9          3          4          7          0         
128              9          3          4          7          0         
129              9          3          4          7          0         
130              9          3          4          7          0         
131              9          3          4          7          0         
132              9          3          4          7          0         
133              9          3          4          7          0         
134              9          3          4          7          0         
135              9          3          4          7          0         
136              9          3          4          7          0         
137              9          3          4          7          0         
138              9          3          4          7          0         
139              9          3          4          7          0         
140              9          3          4          7          0         
141              9          3          4          7          0         
142              9          3          4          7          0         
143              9          3          4          7          0         
144              9          3          4          7          0         
145              9          3          4          7          0         
146              9          3          4          7          0         
147              9          3          4          7          0         
148              9          3          4          7          0         
149              9          3          4          7          0         
150              9          3          4          7          0         
151              9          3          4          7          0         
152              9          3          4          7          0         
153              9          3          4          7          0         
154              9          3          4          7          0         
155              9          3          4          7          0         
156              9          3          4          7          0         
157              9          3          4          7          0         
158              9          3          4          7          0         
159              9          3          4          7          0         
160              9          3          4          7          0         
161              9          3          4          7          0         
162              9          3          4          7          0         
163              9          3          4          7          0         
164              9          3          4          7          0         
165              9          3          4          7          0         
166              9          3          4          7          0         
167              9          3          4          7          0         
168              9          3          4          7          0         
169              9          3          4          7          0         
170              9          3          4          7          0         
171              9          3          4          7          0         
172              9          3          4          7          0         
173              9          3          4          7          0         
174              9          3          4          7          0         
175              9          3          4          7          0         
176              9          3          4          7          0         
177              9          3          4          7          0         
178              9          3          4          7          0         
179              9          3          4          7          0         
180              9          3          4          7          0         